R-Tha
  MatStudio         3D                             0

 29 31  0  0  0  0  0  0  0  0999 V2000
    1.1350    0.4094   -2.0099 O   0  0  0  0  0  0  0  0  0  1
   -0.8697   -2.5235   -0.1540 O   0  0  0  0  0  0  0  0  0  2
   -0.1472    1.9353    0.5180 O   0  0  0  0  0  0  0  0  0  3
    5.2244    0.4131   -0.1037 O   0  0  0  0  0  0  0  0  0  4
   -0.1840   -0.3544    0.2310 N   0  0  0  0  0  0  0  0  0  5
    3.1624    0.3403   -1.0156 N   0  0  0  0  0  0  0  0  0  6
    1.2377   -0.5890    0.1775 C   0  0  0  0  0  0  0  0  0  7
    1.9885   -0.1407    1.4360 C   0  0  0  0  0  0  0  0  0  8
    3.4702   -0.4934    1.2673 C   0  0  0  0  0  0  0  0  0  9
    1.8062    0.1045   -1.0541 C   0  0  0  0  0  0  0  0  0 10
   -1.1267   -1.3564   -0.0015 C   0  0  0  0  0  0  0  0  0 11
   -0.7571    0.9125    0.3336 C   0  0  0  0  0  0  0  0  0 12
   -2.4413   -0.6592   -0.0038 C   0  0  0  0  0  0  0  0  0 13
   -2.2217    0.6888    0.1936 C   0  0  0  0  0  0  0  0  0 14
    4.0567    0.1271    0.0206 C   0  0  0  0  0  0  0  0  0 15
   -3.7024   -1.1662   -0.1686 C   0  0  0  0  0  0  0  0  0 16
   -3.2542    1.5870    0.2334 C   0  0  0  0  0  0  0  0  0 17
   -4.7638   -0.2663   -0.1299 C   0  0  0  0  0  0  0  0  0 18
   -4.5433    1.0880    0.0677 C   0  0  0  0  0  0  0  0  0 19
    1.3586   -1.6579    0.0413 H   0  0  0  0  0  0  0  0  0 20
    1.5788   -0.6534    2.2952 H   0  0  0  0  0  0  0  0  0 21
    1.8550    0.9226    1.5715 H   0  0  0  0  0  0  0  0  0 22
    3.5895   -1.5711    1.1913 H   0  0  0  0  0  0  0  0  0 23
    4.0652   -0.1550    2.1026 H   0  0  0  0  0  0  0  0  0 24
    3.5485    0.7664   -1.8375 H   0  0  0  0  0  0  0  0  0 25
   -3.8618   -2.2138   -0.3236 H   0  0  0  0  0  0  0  0  0 26
   -3.0727    2.6316    0.3831 H   0  0  0  0  0  0  0  0  0 27
   -5.7657   -0.6238   -0.2565 H   0  0  0  0  0  0  0  0  0 28
   -5.3776    1.7596    0.0909 H   0  0  0  0  0  0  0  0  0 29
  1 10  2  0  0  0
  2 11  2  0  0  0
  3 12  2  0  0  0
  4 15  2  0  0  0
  5  7  1  0  0  0
  5 11  1  0  0  0
  5 12  1  0  0  0
  6 10  1  0  0  0
  6 15  1  0  0  0
  6 25  1  0  0  0
  7  8  1  0  0  0
  7 10  1  0  0  0
  7 20  1  0  0  0
  8  9  1  0  0  0
  8 21  1  0  0  0
  8 22  1  0  0  0
  9 15  1  0  0  0
  9 23  1  0  0  0
  9 24  1  0  0  0
 11 13  1  0  0  0
 12 14  1  0  0  0
 13 14  1  0  0  0
 13 16  2  0  0  0
 14 17  2  0  0  0
 16 18  1  0  0  0
 16 26  1  0  0  0
 17 19  1  0  0  0
 17 27  1  0  0  0
 18 19  2  0  0  0
 18 28  1  0  0  0
 19 29  1  0  0  0
M  END
