L-Phe_1
  MatStudio         3D                             0

 23 23  0  0  0  0  0  0  0  0999 V2000
   -2.6602   -0.5926    1.2987 O   0  0  0  0  0  0  0  0  0  1
   -2.1607   -1.5139   -0.6776 O   0  0  0  0  0  0  0  0  0  2
   -1.3980    1.6057    0.8560 N   0  0  0  0  0  0  0  0  0  3
   -0.4864    0.6943   -1.3554 C   0  0  0  0  0  0  0  0  0  4
   -1.6620    0.8255   -0.3640 C   0  0  0  0  0  0  0  0  0  5
    0.7916    0.2445   -0.6736 C   0  0  0  0  0  0  0  0  0  6
    1.0145   -1.1005   -0.3998 C   0  0  0  0  0  0  0  0  0  7
    1.7500    1.1739   -0.2918 C   0  0  0  0  0  0  0  0  0  8
   -2.1694   -0.5596    0.0566 C   0  0  0  0  0  0  0  0  0  9
    2.1717   -1.5008    0.2429 C   0  0  0  0  0  0  0  0  0 10
    2.9080    0.7729    0.3537 C   0  0  0  0  0  0  0  0  0 11
    3.1208   -0.5666    0.6231 C   0  0  0  0  0  0  0  0  0 12
   -0.7780   -0.0185   -2.1138 H   0  0  0  0  0  0  0  0  0 13
   -0.3246    1.6530   -1.8343 H   0  0  0  0  0  0  0  0  0 14
   -2.4952    1.2952   -0.8773 H   0  0  0  0  0  0  0  0  0 15
    0.2760   -1.8213   -0.6850 H   0  0  0  0  0  0  0  0  0 16
    1.5985    2.2135   -0.5136 H   0  0  0  0  0  0  0  0  0 17
   -1.5998    2.5848    0.7665 H   0  0  0  0  0  0  0  0  0 18
   -0.4683    1.4581    1.2129 H   0  0  0  0  0  0  0  0  0 19
    2.3319   -2.5411    0.4458 H   0  0  0  0  0  0  0  0  0 20
    3.6405    1.5023    0.6382 H   0  0  0  0  0  0  0  0  0 21
    4.0172   -0.8805    1.1199 H   0  0  0  0  0  0  0  0  0 22
   -2.4832    0.2675    1.7291 H   0  0  0  0  0  0  0  0  0 23
  1  9  1  0  0  0
  1 23  1  0  0  0
  2  9  2  0  0  0
  3  5  1  0  0  0
  3 18  1  0  0  0
  3 19  1  0  0  0
  4  5  1  0  0  0
  4  6  1  0  0  0
  4 13  1  0  0  0
  4 14  1  0  0  0
  5  9  1  0  0  0
  5 15  1  0  0  0
  6  7  2  0  0  0
  6  8  1  0  0  0
  7 10  1  0  0  0
  7 16  1  0  0  0
  8 11  2  0  0  0
  8 17  1  0  0  0
 10 12  2  0  0  0
 10 20  1  0  0  0
 11 12  1  0  0  0
 11 21  1  0  0  0
 12 22  1  0  0  0
M  END
