L-Phe_6
  MatStudio         3D                             0

 23 23  0  0  0  0  0  0  0  0999 V2000
    3.4326    0.7464   -0.6017 O   0  0  0  0  0  0  0  0  0  1
    1.7289    1.7134    0.4653 O   0  0  0  0  0  0  0  0  0  2
    2.5375   -1.6398   -0.2493 N   0  0  0  0  0  0  0  0  0  3
    0.3954   -0.7896    0.8751 C   0  0  0  0  0  0  0  0  0  4
    1.4844   -0.6010   -0.2099 C   0  0  0  0  0  0  0  0  0  5
   -0.9838   -0.3436    0.4158 C   0  0  0  0  0  0  0  0  0  6
   -1.9564   -1.2867    0.1174 C   0  0  0  0  0  0  0  0  0  7
   -1.2884    1.0049    0.2747 C   0  0  0  0  0  0  0  0  0  8
    2.2056    0.7439   -0.0634 C   0  0  0  0  0  0  0  0  0  9
   -3.2129   -0.8956   -0.3140 C   0  0  0  0  0  0  0  0  0 10
   -2.5436    1.3947   -0.1552 C   0  0  0  0  0  0  0  0  0 11
   -3.5097    0.4477   -0.4512 C   0  0  0  0  0  0  0  0  0 12
    0.3541   -1.8440    1.1208 H   0  0  0  0  0  0  0  0  0 13
    0.6815   -0.2467    1.7671 H   0  0  0  0  0  0  0  0  0 14
    1.0148   -0.5960   -1.1861 H   0  0  0  0  0  0  0  0  0 15
   -1.7371   -2.3316    0.2286 H   0  0  0  0  0  0  0  0  0 16
   -0.5346    1.7317    0.4927 H   0  0  0  0  0  0  0  0  0 17
    2.2731   -2.4584   -0.7677 H   0  0  0  0  0  0  0  0  0 18
    2.8803   -1.8906    0.6639 H   0  0  0  0  0  0  0  0  0 19
   -3.9545   -1.6369   -0.5382 H   0  0  0  0  0  0  0  0  0 20
   -2.7666    2.4383   -0.2583 H   0  0  0  0  0  0  0  0  0 21
   -4.4819    0.7540   -0.7831 H   0  0  0  0  0  0  0  0  0 22
    3.6793   -0.1664   -0.8424 H   0  0  0  0  0  0  0  0  0 23
  1  9  1  0  0  0
  1 23  1  0  0  0
  2  9  2  0  0  0
  3  5  1  0  0  0
  3 18  1  0  0  0
  3 19  1  0  0  0
  4  5  1  0  0  0
  4  6  1  0  0  0
  4 13  1  0  0  0
  4 14  1  0  0  0
  5  9  1  0  0  0
  5 15  1  0  0  0
  6  7  2  0  0  0
  6  8  1  0  0  0
  7 10  1  0  0  0
  7 16  1  0  0  0
  8 11  2  0  0  0
  8 17  1  0  0  0
 10 12  2  0  0  0
 10 20  1  0  0  0
 11 12  1  0  0  0
 11 21  1  0  0  0
 12 22  1  0  0  0
M  END
